 xtb: 6.5.1 (conda-forge)
          06232510043D

 28 30  0     0  0            999 V2000
   -0.6726   -0.0187    0.0000 C   0  0  0  0  0  0  0  0  0  0  0  0
    0.6726    0.0186    0.0000 C   0  0  0  0  0  0  0  0  0  0  0  0
    1.6075    1.5420    0.0000 S   0  0  0  0  0  0  0  0  0  0  0  0
    3.1835    0.7548    0.0000 C   0  0  0  0  0  0  0  0  0  0  0  0
    3.2205   -0.5770    0.0000 C   0  0  0  0  0  0  0  0  0  0  0  0
    1.6906   -1.4505    0.0000 S   0  0  0  0  0  0  0  0  0  0  0  0
   -1.6905    1.4505    0.0000 S   0  0  0  0  0  0  0  0  0  0  0  0
   -3.2205    0.5771    0.0000 C   0  0  0  0  0  0  0  0  0  0  0  0
   -3.1836   -0.7547    0.0000 C   0  0  0  0  0  0  0  0  0  0  0  0
   -1.6076   -1.5421    0.0000 S   0  0  0  0  0  0  0  0  0  0  0  0
   -4.1237    1.1729    0.0000 H   0  0  0  0  0  0  0  0  0  0  0  0
   -4.0525   -1.3995    0.0000 H   0  0  0  0  0  0  0  0  0  0  0  0
    4.1238   -1.1727    0.0000 H   0  0  0  0  0  0  0  0  0  0  0  0
    4.0524    1.3996    0.0000 H   0  0  0  0  0  0  0  0  0  0  0  0
   -0.6726   -0.0187    3.5000 C   0  0  0  0  0  0  0  0  0  0  0  0
    0.6726    0.0186    3.5000 C   0  0  0  0  0  0  0  0  0  0  0  0
    1.6075    1.5420    3.5000 S   0  0  0  0  0  0  0  0  0  0  0  0
    3.1836    0.7548    3.5000 C   0  0  0  0  0  0  0  0  0  0  0  0
    3.2205   -0.5770    3.5000 C   0  0  0  0  0  0  0  0  0  0  0  0
    1.6906   -1.4505    3.5000 S   0  0  0  0  0  0  0  0  0  0  0  0
   -1.6905    1.4505    3.5000 S   0  0  0  0  0  0  0  0  0  0  0  0
   -3.2205    0.5771    3.5000 C   0  0  0  0  0  0  0  0  0  0  0  0
   -3.1836   -0.7547    3.5000 C   0  0  0  0  0  0  0  0  0  0  0  0
   -1.6076   -1.5421    3.5000 S   0  0  0  0  0  0  0  0  0  0  0  0
   -4.1237    1.1729    3.5000 H   0  0  0  0  0  0  0  0  0  0  0  0
   -4.0525   -1.3995    3.5000 H   0  0  0  0  0  0  0  0  0  0  0  0
    4.1238   -1.1727    3.5000 H   0  0  0  0  0  0  0  0  0  0  0  0
    4.0524    1.3996    3.5000 H   0  0  0  0  0  0  0  0  0  0  0  0
  1  2  2  0  0  0  0
  2  3  1  0  0  0  0
  3  4  1  0  0  0  0
  4  5  2  0  0  0  0
  2  6  1  0  0  0  0
  5  6  1  0  0  0  0
  1  7  1  0  0  0  0
  7  8  1  0  0  0  0
  8  9  2  0  0  0  0
  1 10  1  0  0  0  0
  9 10  1  0  0  0  0
  8 11  1  0  0  0  0
  9 12  1  0  0  0  0
  5 13  1  0  0  0  0
  4 14  1  0  0  0  0
 15 16  2  0  0  0  0
 16 17  1  0  0  0  0
 17 18  1  0  0  0  0
 18 19  2  0  0  0  0
 16 20  1  0  0  0  0
 19 20  1  0  0  0  0
 15 21  1  0  0  0  0
 21 22  1  0  0  0  0
 22 23  2  0  0  0  0
 15 24  1  0  0  0  0
 23 24  1  0  0  0  0
 22 25  1  0  0  0  0
 23 26  1  0  0  0  0
 19 27  1  0  0  0  0
 18 28  1  0  0  0  0
M  END
