 xtb: 6.5.1 (conda-forge)
          06232518083D

372400  0     0  0            999 V2000
   97.4823   82.0344  131.8604 C   0  0  0  0  0  0  0  0  0  0  0  0
   97.9544   82.8927  130.8658 C   0  0  0  0  0  0  0  0  0  0  0  0
   99.2730   82.6359  130.4217 C   0  0  0  0  0  0  0  0  0  0  0  0
  100.0562   81.5276  130.8434 C   0  0  0  0  0  0  0  0  0  0  0  0
   99.5560   80.6478  131.7491 C   0  0  0  0  0  0  0  0  0  0  0  0
   98.2079   80.8428  132.2034 C   0  0  0  0  0  0  0  0  0  0  0  0
   96.5094   82.2499  132.2957 H   0  0  0  0  0  0  0  0  0  0  0  0
  101.0747   81.3998  130.5026 H   0  0  0  0  0  0  0  0  0  0  0  0
   97.2372   84.1214  130.3190 C   0  0  0  0  0  0  0  0  0  0  0  0
   98.4712   84.5926  129.4375 C   0  0  0  0  0  0  0  0  0  0  0  0
   99.5597   83.7252  129.5342 C   0  0  0  0  0  0  0  0  0  0  0  0
   98.7345   85.7467  128.6729 C   0  0  0  0  0  0  0  0  0  0  0  0
  100.1063   85.7856  128.2431 C   0  0  0  0  0  0  0  0  0  0  0  0
  100.9819   84.3522  128.7798 S   0  0  0  0  0  0  0  0  0  0  0  0
  100.2101   79.4263  132.3682 C   0  0  0  0  0  0  0  0  0  0  0  0
   98.9825   78.9535  133.2296 C   0  0  0  0  0  0  0  0  0  0  0  0
   97.8776   79.7208  133.0273 C   0  0  0  0  0  0  0  0  0  0  0  0
   98.6521   77.9563  134.1653 C   0  0  0  0  0  0  0  0  0  0  0  0
   97.2968   77.9778  134.6291 C   0  0  0  0  0  0  0  0  0  0  0  0
   96.4081   79.2198  133.9062 S   0  0  0  0  0  0  0  0  0  0  0  0
  100.4446   86.9538  127.6639 C   0  0  0  0  0  0  0  0  0  0  0  0
   97.9141   87.2676  128.2580 S   0  0  0  0  0  0  0  0  0  0  0  0
   99.5563   76.6678  134.9750 S   0  0  0  0  0  0  0  0  0  0  0  0
   97.0285   76.9774  135.5508 C   0  0  0  0  0  0  0  0  0  0  0  0
   99.4841   87.9703  127.6650 C   0  0  0  0  0  0  0  0  0  0  0  0
   98.2211   76.4986  136.1472 C   0  0  0  0  0  0  0  0  0  0  0  0
  101.4511   87.1026  127.4031 H   0  0  0  0  0  0  0  0  0  0  0  0
   96.1389   76.7760  136.0857 H   0  0  0  0  0  0  0  0  0  0  0  0
   98.2875   75.6033  137.2597 C   0  0  0  0  0  0  0  0  0  0  0  0
   97.7224   75.5519  138.5316 C   0  0  0  0  0  0  0  0  0  0  0  0
   96.8261   76.6015  139.0987 C   0  0  0  0  0  0  0  0  0  0  0  0
   98.1551   74.6752  139.6854 C   0  0  0  0  0  0  0  0  0  0  0  0
   96.7061   76.3813  140.5016 C   0  0  0  0  0  0  0  0  0  0  0  0
   96.3310   77.5564  138.5322 O   0  0  0  0  0  0  0  0  0  0  0  0
   97.3285   75.1650  140.8677 C   0  0  0  0  0  0  0  0  0  0  0  0
   99.0966   73.6464  139.7261 C   0  0  0  0  0  0  0  0  0  0  0  0
   95.8580   77.0362  141.4042 C   0  0  0  0  0  0  0  0  0  0  0  0
   97.2982   74.8138  142.2040 C   0  0  0  0  0  0  0  0  0  0  0  0
   99.9092   73.0821  138.6379 C   0  0  0  0  0  0  0  0  0  0  0  0
   99.3325   72.8245  140.8561 C   0  0  0  0  0  0  0  0  0  0  0  0
   95.7650   76.6236  142.7017 C   0  0  0  0  0  0  0  0  0  0  0  0
   95.2473   77.8811  141.0712 H   0  0  0  0  0  0  0  0  0  0  0  0
   96.4533   75.5108  143.1047 C   0  0  0  0  0  0  0  0  0  0  0  0
   97.7787   73.9916  142.7013 H   0  0  0  0  0  0  0  0  0  0  0  0
  100.5118   72.7017  137.7861 N   0  0  0  0  0  0  0  0  0  0  0  0
   99.4215   72.0559  141.7524 N   0  0  0  0  0  0  0  0  0  0  0  0
   95.1284   77.1613  143.3972 H   0  0  0  0  0  0  0  0  0  0  0  0
   96.4171   75.2003  144.1717 H   0  0  0  0  0  0  0  0  0  0  0  0
   98.9939   74.8326  137.1256 H   0  0  0  0  0  0  0  0  0  0  0  0
   99.6915   89.1615  126.9080 C   0  0  0  0  0  0  0  0  0  0  0  0
  100.7656   90.0261  126.7668 C   0  0  0  0  0  0  0  0  0  0  0  0
  101.9062   90.0234  127.6826 C   0  0  0  0  0  0  0  0  0  0  0  0
  100.9931   91.1781  125.8845 C   0  0  0  0  0  0  0  0  0  0  0  0
  102.7849   91.1337  127.2873 C   0  0  0  0  0  0  0  0  0  0  0  0
  102.1274   89.3343  128.6784 O   0  0  0  0  0  0  0  0  0  0  0  0
  102.2892   91.7855  126.2109 C   0  0  0  0  0  0  0  0  0  0  0  0
  100.1594   91.6488  124.8555 C   0  0  0  0  0  0  0  0  0  0  0  0
  103.9860   91.5130  127.9060 C   0  0  0  0  0  0  0  0  0  0  0  0
  103.0100   92.8263  125.6426 C   0  0  0  0  0  0  0  0  0  0  0  0
   99.1420   90.9076  124.2896 C   0  0  0  0  0  0  0  0  0  0  0  0
  100.2166   92.9610  124.2724 C   0  0  0  0  0  0  0  0  0  0  0  0
  104.6773   92.6312  127.3928 C   0  0  0  0  0  0  0  0  0  0  0  0
  104.4373   90.8892  128.7120 H   0  0  0  0  0  0  0  0  0  0  0  0
  104.2280   93.2577  126.2199 C   0  0  0  0  0  0  0  0  0  0  0  0
  102.6714   93.2844  124.6765 H   0  0  0  0  0  0  0  0  0  0  0  0
   98.3041   90.2936  123.7791 N   0  0  0  0  0  0  0  0  0  0  0  0
  100.2403   94.0242  123.8195 N   0  0  0  0  0  0  0  0  0  0  0  0
  105.6459   92.9482  127.8590 H   0  0  0  0  0  0  0  0  0  0  0  0
  104.8038   93.9512  125.6264 H   0  0  0  0  0  0  0  0  0  0  0  0
   98.7635   89.4005  126.3886 H   0  0  0  0  0  0  0  0  0  0  0  0
  101.4558   79.9346  133.1993 C   0  0  0  0  0  0  0  0  0  0  0  0
  101.3254   80.5101  134.4983 C   0  0  0  0  0  0  0  0  0  0  0  0
  102.7527   79.9090  132.6181 C   0  0  0  0  0  0  0  0  0  0  0  0
  102.4486   80.9729  135.2311 C   0  0  0  0  0  0  0  0  0  0  0  0
  100.3967   80.6053  135.0157 H   0  0  0  0  0  0  0  0  0  0  0  0
  103.8592   80.4561  133.2515 C   0  0  0  0  0  0  0  0  0  0  0  0
  102.8707   79.5414  131.6025 H   0  0  0  0  0  0  0  0  0  0  0  0
  103.6935   81.0571  134.5188 C   0  0  0  0  0  0  0  0  0  0  0  0
  102.2627   81.2736  136.2287 H   0  0  0  0  0  0  0  0  0  0  0  0
  104.8254   80.2900  132.7592 H   0  0  0  0  0  0  0  0  0  0  0  0
   96.8511   85.2077  131.4129 C   0  0  0  0  0  0  0  0  0  0  0  0
   97.4911   85.2395  132.6836 C   0  0  0  0  0  0  0  0  0  0  0  0
   96.1350   86.3919  131.0361 C   0  0  0  0  0  0  0  0  0  0  0  0
   97.2958   86.3307  133.5738 C   0  0  0  0  0  0  0  0  0  0  0  0
   98.2112   84.4885  132.8826 H   0  0  0  0  0  0  0  0  0  0  0  0
   95.8631   87.4344  131.9098 C   0  0  0  0  0  0  0  0  0  0  0  0
   95.6041   86.4367  130.0631 H   0  0  0  0  0  0  0  0  0  0  0  0
   96.5330   87.4509  133.1183 C   0  0  0  0  0  0  0  0  0  0  0  0
   97.9176   86.4572  134.4908 H   0  0  0  0  0  0  0  0  0  0  0  0
   95.2600   88.3508  131.6629 H   0  0  0  0  0  0  0  0  0  0  0  0
   96.0180   83.6876  129.4626 C   0  0  0  0  0  0  0  0  0  0  0  0
   96.1249   83.5988  128.0727 C   0  0  0  0  0  0  0  0  0  0  0  0
   94.8325   83.1458  130.0920 C   0  0  0  0  0  0  0  0  0  0  0  0
   95.0420   83.0211  127.3618 C   0  0  0  0  0  0  0  0  0  0  0  0
   96.9209   84.0193  127.4186 H   0  0  0  0  0  0  0  0  0  0  0  0
   93.7507   82.6986  129.2972 C   0  0  0  0  0  0  0  0  0  0  0  0
   94.7181   83.2507  131.1515 H   0  0  0  0  0  0  0  0  0  0  0  0
   93.8370   82.6803  127.9128 C   0  0  0  0  0  0  0  0  0  0  0  0
   95.1874   82.9507  126.3119 H   0  0  0  0  0  0  0  0  0  0  0  0
   92.7999   82.4330  129.6838 H   0  0  0  0  0  0  0  0  0  0  0  0
  100.4399   78.2833  131.3346 C   0  0  0  0  0  0  0  0  0  0  0  0
  100.0359   78.3052  129.9632 C   0  0  0  0  0  0  0  0  0  0  0  0
  101.2121   77.1510  131.8213 C   0  0  0  0  0  0  0  0  0  0  0  0
  100.3858   77.2714  129.1444 C   0  0  0  0  0  0  0  0  0  0  0  0
   99.4822   79.1344  129.5035 H   0  0  0  0  0  0  0  0  0  0  0  0
  101.5160   76.0805  131.0063 C   0  0  0  0  0  0  0  0  0  0  0  0
  101.5488   77.0870  132.8425 H   0  0  0  0  0  0  0  0  0  0  0  0
  101.1230   76.1486  129.6931 C   0  0  0  0  0  0  0  0  0  0  0  0
  100.0410   77.2491  128.1316 H   0  0  0  0  0  0  0  0  0  0  0  0
  102.1205   75.2373  131.4701 H   0  0  0  0  0  0  0  0  0  0  0  0
   92.7887   82.1985  126.9698 C   0  0  0  0  0  0  0  0  0  0  0  0
   91.9317   82.7727  126.9488 H   0  0  0  0  0  0  0  0  0  0  0  0
   93.1338   82.2332  125.9736 H   0  0  0  0  0  0  0  0  0  0  0  0
   92.5203   80.7356  127.2139 C   0  0  0  0  0  0  0  0  0  0  0  0
   91.8315   80.5637  128.0638 H   0  0  0  0  0  0  0  0  0  0  0  0
   92.0547   80.3683  126.3438 H   0  0  0  0  0  0  0  0  0  0  0  0
   93.7707   79.8632  127.4325 C   0  0  0  0  0  0  0  0  0  0  0  0
   94.3474   79.9169  126.5104 H   0  0  0  0  0  0  0  0  0  0  0  0
   94.3970   80.2911  128.2450 H   0  0  0  0  0  0  0  0  0  0  0  0
  104.9133   81.3358  135.3283 C   0  0  0  0  0  0  0  0  0  0  0  0
  105.6724   81.8876  134.7448 H   0  0  0  0  0  0  0  0  0  0  0  0
  104.6174   82.0635  136.1303 H   0  0  0  0  0  0  0  0  0  0  0  0
  105.5221   80.0250  135.9075 C   0  0  0  0  0  0  0  0  0  0  0  0
  104.7284   79.4330  136.4546 H   0  0  0  0  0  0  0  0  0  0  0  0
  105.9259   79.4931  135.0515 H   0  0  0  0  0  0  0  0  0  0  0  0
  106.7416   80.1658  136.8444 C   0  0  0  0  0  0  0  0  0  0  0  0
  106.4658   80.9025  137.6754 H   0  0  0  0  0  0  0  0  0  0  0  0
  107.5392   80.6729  136.2406 H   0  0  0  0  0  0  0  0  0  0  0  0
  101.4822   74.9332  128.8677 C   0  0  0  0  0  0  0  0  0  0  0  0
  101.1845   74.0820  129.4513 H   0  0  0  0  0  0  0  0  0  0  0  0
  100.7494   74.9537  128.0534 H   0  0  0  0  0  0  0  0  0  0  0  0
  102.9321   74.7546  128.3309 C   0  0  0  0  0  0  0  0  0  0  0  0
  103.6349   74.7910  129.1555 H   0  0  0  0  0  0  0  0  0  0  0  0
  103.1315   73.8325  127.7851 H   0  0  0  0  0  0  0  0  0  0  0  0
  103.2148   75.8970  127.3352 C   0  0  0  0  0  0  0  0  0  0  0  0
  102.5080   75.9428  126.5472 H   0  0  0  0  0  0  0  0  0  0  0  0
  102.9804   76.8891  127.8411 H   0  0  0  0  0  0  0  0  0  0  0  0
   96.5663   88.7366  133.9685 C   0  0  0  0  0  0  0  0  0  0  0  0
   97.5596   89.1777  133.7688 H   0  0  0  0  0  0  0  0  0  0  0  0
   96.5633   88.3531  134.9538 H   0  0  0  0  0  0  0  0  0  0  0  0
   95.3861   89.7228  134.0741 C   0  0  0  0  0  0  0  0  0  0  0  0
   95.1695   90.0528  133.0548 H   0  0  0  0  0  0  0  0  0  0  0  0
   94.4046   89.1828  134.3673 H   0  0  0  0  0  0  0  0  0  0  0  0
   95.6627   90.8406  135.0468 C   0  0  0  0  0  0  0  0  0  0  0  0
   96.6884   91.1940  134.7662 H   0  0  0  0  0  0  0  0  0  0  0  0
   95.7268   90.3773  135.9669 H   0  0  0  0  0  0  0  0  0  0  0  0
  107.2706   78.8825  137.4907 C   0  0  0  0  0  0  0  0  0  0  0  0
  106.4101   78.5021  138.0734 H   0  0  0  0  0  0  0  0  0  0  0  0
  107.5917   78.0989  136.7786 H   0  0  0  0  0  0  0  0  0  0  0  0
   94.6544   92.0246  135.0884 C   0  0  0  0  0  0  0  0  0  0  0  0
   94.5541   92.5434  134.0698 H   0  0  0  0  0  0  0  0  0  0  0  0
   93.6793   91.6331  135.4084 H   0  0  0  0  0  0  0  0  0  0  0  0
  104.5905   75.8254  126.7284 C   0  0  0  0  0  0  0  0  0  0  0  0
  105.3450   75.9181  127.4944 H   0  0  0  0  0  0  0  0  0  0  0  0
  104.7790   74.8270  126.3842 H   0  0  0  0  0  0  0  0  0  0  0  0
   93.5889   78.3869  127.7936 C   0  0  0  0  0  0  0  0  0  0  0  0
   92.8020   78.3447  128.5444 H   0  0  0  0  0  0  0  0  0  0  0  0
   92.9536   77.8339  127.0552 H   0  0  0  0  0  0  0  0  0  0  0  0
  104.9453   76.8194  125.5421 C   0  0  0  0  0  0  0  0  0  0  0  0
  104.6098   77.7832  125.8239 H   0  0  0  0  0  0  0  0  0  0  0  0
  104.4201   76.5239  124.6425 H   0  0  0  0  0  0  0  0  0  0  0  0
   95.1411   93.1237  136.0584 C   0  0  0  0  0  0  0  0  0  0  0  0
   96.0292   93.6233  135.6001 H   0  0  0  0  0  0  0  0  0  0  0  0
   95.5149   92.6771  136.9672 H   0  0  0  0  0  0  0  0  0  0  0  0
  108.4240   79.0183  138.4815 C   0  0  0  0  0  0  0  0  0  0  0  0
  108.0359   79.4300  139.4130 H   0  0  0  0  0  0  0  0  0  0  0  0
  109.1577   79.8040  138.0519 H   0  0  0  0  0  0  0  0  0  0  0  0
   94.9207   77.5292  128.0050 C   0  0  0  0  0  0  0  0  0  0  0  0
   95.6409   77.8132  127.3273 H   0  0  0  0  0  0  0  0  0  0  0  0
   95.3128   77.7798  129.0678 H   0  0  0  0  0  0  0  0  0  0  0  0
  109.0835   77.6525  138.7630 C   0  0  0  0  0  0  0  0  0  0  0  0
  109.9980   77.8109  139.3457 H   0  0  0  0  0  0  0  0  0  0  0  0
  108.3827   76.9124  139.2923 H   0  0  0  0  0  0  0  0  0  0  0  0
  109.2423   77.1210  137.8544 H   0  0  0  0  0  0  0  0  0  0  0  0
   94.0454   94.0937  136.3429 C   0  0  0  0  0  0  0  0  0  0  0  0
   94.3976   94.9758  136.9076 H   0  0  0  0  0  0  0  0  0  0  0  0
   93.7974   94.4816  135.3255 H   0  0  0  0  0  0  0  0  0  0  0  0
   93.1878   93.8253  136.9967 H   0  0  0  0  0  0  0  0  0  0  0  0
  106.4496   76.7355  125.1040 C   0  0  0  0  0  0  0  0  0  0  0  0
  107.0414   76.9055  125.9598 H   0  0  0  0  0  0  0  0  0  0  0  0
  106.6992   75.6927  124.6667 H   0  0  0  0  0  0  0  0  0  0  0  0
  106.7255   77.4242  124.3297 H   0  0  0  0  0  0  0  0  0  0  0  0
   94.6077   76.0803  127.7838 C   0  0  0  0  0  0  0  0  0  0  0  0
   94.1082   75.9528  126.8601 H   0  0  0  0  0  0  0  0  0  0  0  0
   95.5218   75.4652  127.8946 H   0  0  0  0  0  0  0  0  0  0  0  0
   93.7985   75.7324  128.5175 H   0  0  0  0  0  0  0  0  0  0  0  0
  103.7890   88.6411  116.9880 C   0  0  0  0  0  0  0  0  0  0  0  0
  104.6684   87.6744  117.5161 C   0  0  0  0  0  0  0  0  0  0  0  0
  106.0160   87.6597  117.0955 C   0  0  0  0  0  0  0  0  0  0  0  0
  106.5065   88.5648  116.1214 C   0  0  0  0  0  0  0  0  0  0  0  0
  105.6466   89.5830  115.6064 C   0  0  0  0  0  0  0  0  0  0  0  0
  104.2776   89.6566  116.1067 C   0  0  0  0  0  0  0  0  0  0  0  0
  102.7846   88.8457  117.3599 H   0  0  0  0  0  0  0  0  0  0  0  0
  107.5280   88.4984  115.9035 H   0  0  0  0  0  0  0  0  0  0  0  0
  104.4442   86.5780  118.5859 C   0  0  0  0  0  0  0  0  0  0  0  0
  105.8081   85.8330  118.5203 C   0  0  0  0  0  0  0  0  0  0  0  0
  106.7057   86.5637  117.7309 C   0  0  0  0  0  0  0  0  0  0  0  0
  106.4281   84.7663  119.2626 C   0  0  0  0  0  0  0  0  0  0  0  0
  107.7761   84.6810  119.0006 C   0  0  0  0  0  0  0  0  0  0  0  0
  108.3065   85.9441  117.8416 S   0  0  0  0  0  0  0  0  0  0  0  0
  105.9203   90.6443  114.5176 C   0  0  0  0  0  0  0  0  0  0  0  0
  104.5831   91.3544  114.6084 C   0  0  0  0  0  0  0  0  0  0  0  0
  103.6661   90.8045  115.5290 C   0  0  0  0  0  0  0  0  0  0  0  0
  104.0652   92.5530  114.0225 C   0  0  0  0  0  0  0  0  0  0  0  0
  102.7404   92.8263  114.4699 C   0  0  0  0  0  0  0  0  0  0  0  0
  102.1377   91.6052  115.5550 S   0  0  0  0  0  0  0  0  0  0  0  0
  108.4363   83.7713  119.7052 C   0  0  0  0  0  0  0  0  0  0  0  0
  105.9459   83.5168  120.3922 S   0  0  0  0  0  0  0  0  0  0  0  0
  104.6165   93.7756  112.9663 S   0  0  0  0  0  0  0  0  0  0  0  0
  102.1836   93.9875  113.9491 C   0  0  0  0  0  0  0  0  0  0  0  0
  107.6540   83.0211  120.5351 C   0  0  0  0  0  0  0  0  0  0  0  0
  102.9560   94.5179  112.9338 C   0  0  0  0  0  0  0  0  0  0  0  0
  109.4408   83.5746  119.6774 H   0  0  0  0  0  0  0  0  0  0  0  0
  101.1693   94.3380  114.1456 H   0  0  0  0  0  0  0  0  0  0  0  0
  102.4906   95.6660  112.2602 C   0  0  0  0  0  0  0  0  0  0  0  0
  101.2734   96.0247  111.6755 C   0  0  0  0  0  0  0  0  0  0  0  0
  100.0392   95.0909  111.5704 C   0  0  0  0  0  0  0  0  0  0  0  0
  100.8498   97.3061  111.0632 C   0  0  0  0  0  0  0  0  0  0  0  0
   98.9364   95.8105  110.9755 C   0  0  0  0  0  0  0  0  0  0  0  0
   99.9158   93.8718  111.9103 O   0  0  0  0  0  0  0  0  0  0  0  0
   99.3868   97.1438  110.6713 C   0  0  0  0  0  0  0  0  0  0  0  0
  101.6562   98.4966  110.7808 C   0  0  0  0  0  0  0  0  0  0  0  0
   97.6739   95.3387  110.5914 C   0  0  0  0  0  0  0  0  0  0  0  0
   98.5001   97.9936  109.9778 C   0  0  0  0  0  0  0  0  0  0  0  0
  102.9760   98.6315  111.2079 C   0  0  0  0  0  0  0  0  0  0  0  0
  101.0534   99.7552  110.5245 C   0  0  0  0  0  0  0  0  0  0  0  0
   96.7734   96.3058  110.0273 C   0  0  0  0  0  0  0  0  0  0  0  0
   97.3495   94.3148  110.8546 H   0  0  0  0  0  0  0  0  0  0  0  0
   97.2215   97.5810  109.6213 C   0  0  0  0  0  0  0  0  0  0  0  0
   98.8452   98.9473  109.7486 H   0  0  0  0  0  0  0  0  0  0  0  0
  104.1128   98.6542  111.4726 N   0  0  0  0  0  0  0  0  0  0  0  0
  100.5393  100.7536  110.3249 N   0  0  0  0  0  0  0  0  0  0  0  0
   95.7776   95.9655  109.6656 H   0  0  0  0  0  0  0  0  0  0  0  0
   96.5963   98.2704  109.0761 H   0  0  0  0  0  0  0  0  0  0  0  0
  103.3165   96.3878  112.1548 H   0  0  0  0  0  0  0  0  0  0  0  0
  108.1394   81.8932  121.2544 C   0  0  0  0  0  0  0  0  0  0  0  0
  109.3487   81.7148  121.9798 C   0  0  0  0  0  0  0  0  0  0  0  0
  110.4437   82.7814  122.2061 C   0  0  0  0  0  0  0  0  0  0  0  0
  109.7156   80.5364  122.8174 C   0  0  0  0  0  0  0  0  0  0  0  0
  111.4756   82.1439  123.0321 C   0  0  0  0  0  0  0  0  0  0  0  0
  110.4870   83.9289  121.7850 O   0  0  0  0  0  0  0  0  0  0  0  0
  111.0247   80.8826  123.4782 C   0  0  0  0  0  0  0  0  0  0  0  0
  109.0913   79.2560  122.8977 C   0  0  0  0  0  0  0  0  0  0  0  0
  112.7108   82.6254  123.4375 C   0  0  0  0  0  0  0  0  0  0  0  0
  111.7736   80.0592  124.3864 C   0  0  0  0  0  0  0  0  0  0  0  0
  108.0850   78.7314  121.9525 C   0  0  0  0  0  0  0  0  0  0  0  0
  109.3767   78.0387  123.6631 C   0  0  0  0  0  0  0  0  0  0  0  0
  113.5594   81.7610  124.2242 C   0  0  0  0  0  0  0  0  0  0  0  0
  113.0609   83.5960  123.0807 H   0  0  0  0  0  0  0  0  0  0  0  0
  113.0384   80.5154  124.7505 C   0  0  0  0  0  0  0  0  0  0  0  0
  111.4680   79.1655  124.7616 H   0  0  0  0  0  0  0  0  0  0  0  0
  107.3790   78.3517  121.1553 N   0  0  0  0  0  0  0  0  0  0  0  0
  109.5672   77.1253  124.3234 N   0  0  0  0  0  0  0  0  0  0  0  0
  114.6036   82.0407  124.4888 H   0  0  0  0  0  0  0  0  0  0  0  0
  113.7199   79.9241  125.4632 H   0  0  0  0  0  0  0  0  0  0  0  0
  107.4093   81.0868  121.2084 H   0  0  0  0  0  0  0  0  0  0  0  0
  106.1614   89.8799  113.2103 C   0  0  0  0  0  0  0  0  0  0  0  0
  105.2479   89.9899  112.1283 C   0  0  0  0  0  0  0  0  0  0  0  0
  107.2172   88.9485  113.0903 C   0  0  0  0  0  0  0  0  0  0  0  0
  105.4588   89.2941  110.9071 C   0  0  0  0  0  0  0  0  0  0  0  0
  104.3452   90.6173  112.2062 H   0  0  0  0  0  0  0  0  0  0  0  0
  107.4418   88.3087  111.8955 C   0  0  0  0  0  0  0  0  0  0  0  0
  107.7848   88.8467  114.0068 H   0  0  0  0  0  0  0  0  0  0  0  0
  106.5852   88.4588  110.7531 C   0  0  0  0  0  0  0  0  0  0  0  0
  104.7942   89.5845  110.1216 H   0  0  0  0  0  0  0  0  0  0  0  0
  108.2952   87.7303  111.6818 H   0  0  0  0  0  0  0  0  0  0  0  0
  103.1509   85.6619  118.2806 C   0  0  0  0  0  0  0  0  0  0  0  0
  103.2667   84.3045  117.7918 C   0  0  0  0  0  0  0  0  0  0  0  0
  101.8292   86.1908  118.4137 C   0  0  0  0  0  0  0  0  0  0  0  0
  102.0201   83.6745  117.3542 C   0  0  0  0  0  0  0  0  0  0  0  0
  104.2342   83.8466  117.8025 H   0  0  0  0  0  0  0  0  0  0  0  0
  100.6739   85.4660  118.0236 C   0  0  0  0  0  0  0  0  0  0  0  0
  101.6352   87.1264  118.8586 H   0  0  0  0  0  0  0  0  0  0  0  0
  100.7839   84.2615  117.4294 C   0  0  0  0  0  0  0  0  0  0  0  0
  102.1001   82.6443  116.9232 H   0  0  0  0  0  0  0  0  0  0  0  0
   99.6824   85.8747  118.1180 H   0  0  0  0  0  0  0  0  0  0  0  0
  104.1813   87.0877  120.0311 C   0  0  0  0  0  0  0  0  0  0  0  0
  103.9206   88.4593  120.2678 C   0  0  0  0  0  0  0  0  0  0  0  0
  103.9278   86.1538  121.0790 C   0  0  0  0  0  0  0  0  0  0  0  0
  103.5068   88.9197  121.5583 C   0  0  0  0  0  0  0  0  0  0  0  0
  104.0629   89.1931  119.4461 H   0  0  0  0  0  0  0  0  0  0  0  0
  103.5598   86.6526  122.2917 C   0  0  0  0  0  0  0  0  0  0  0  0
  103.9622   85.1162  120.9359 H   0  0  0  0  0  0  0  0  0  0  0  0
  103.4349   88.0202  122.5895 C   0  0  0  0  0  0  0  0  0  0  0  0
  103.3089   89.9506  121.7425 H   0  0  0  0  0  0  0  0  0  0  0  0
  103.4457   85.9099  123.0532 H   0  0  0  0  0  0  0  0  0  0  0  0
  107.0974   91.6732  114.8114 C   0  0  0  0  0  0  0  0  0  0  0  0
  107.7370   92.3086  113.7168 C   0  0  0  0  0  0  0  0  0  0  0  0
  107.4992   92.0601  116.1561 C   0  0  0  0  0  0  0  0  0  0  0  0
  108.7594   93.2552  113.9353 C   0  0  0  0  0  0  0  0  0  0  0  0
  107.4958   92.0410  112.6959 H   0  0  0  0  0  0  0  0  0  0  0  0
  108.4632   93.1033  116.3103 C   0  0  0  0  0  0  0  0  0  0  0  0
  107.0381   91.5691  116.9917 H   0  0  0  0  0  0  0  0  0  0  0  0
  109.0577   93.6741  115.2553 C   0  0  0  0  0  0  0  0  0  0  0  0
  109.1455   93.7393  113.0706 H   0  0  0  0  0  0  0  0  0  0  0  0
  108.7614   93.3848  117.3544 H   0  0  0  0  0  0  0  0  0  0  0  0
  103.0947   88.4760  124.0013 C   0  0  0  0  0  0  0  0  0  0  0  0
  102.5109   89.3402  123.9827 H   0  0  0  0  0  0  0  0  0  0  0  0
  102.5667   87.6929  124.5369 H   0  0  0  0  0  0  0  0  0  0  0  0
  104.3309   88.6017  124.9326 C   0  0  0  0  0  0  0  0  0  0  0  0
  104.0130   88.8584  125.9194 H   0  0  0  0  0  0  0  0  0  0  0  0
  104.7680   87.6498  125.0601 H   0  0  0  0  0  0  0  0  0  0  0  0
  105.3801   89.6024  124.3335 C   0  0  0  0  0  0  0  0  0  0  0  0
  105.6612   89.3421  123.2569 H   0  0  0  0  0  0  0  0  0  0  0  0
  104.9587   90.6480  124.3160 H   0  0  0  0  0  0  0  0  0  0  0  0
  106.8438   87.9660  109.2832 C   0  0  0  0  0  0  0  0  0  0  0  0
  107.4471   88.7642  108.7162 H   0  0  0  0  0  0  0  0  0  0  0  0
  107.5618   87.1609  109.3962 H   0  0  0  0  0  0  0  0  0  0  0  0
  105.5568   87.4670  108.4899 C   0  0  0  0  0  0  0  0  0  0  0  0
  105.8633   86.5496  107.9560 H   0  0  0  0  0  0  0  0  0  0  0  0
  104.7980   87.0529  109.1569 H   0  0  0  0  0  0  0  0  0  0  0  0
  104.9202   88.4915  107.4511 C   0  0  0  0  0  0  0  0  0  0  0  0
  105.2099   88.2918  106.4614 H   0  0  0  0  0  0  0  0  0  0  0  0
  105.3375   89.4923  107.5691 H   0  0  0  0  0  0  0  0  0  0  0  0
  110.1507   94.6978  115.5429 C   0  0  0  0  0  0  0  0  0  0  0  0
  109.6903   95.6232  115.8989 H   0  0  0  0  0  0  0  0  0  0  0  0
  110.7276   94.2366  116.3958 H   0  0  0  0  0  0  0  0  0  0  0  0
  111.0664   95.0571  114.3355 C   0  0  0  0  0  0  0  0  0  0  0  0
  111.2205   94.0780  113.7829 H   0  0  0  0  0  0  0  0  0  0  0  0
  110.5697   95.8090  113.7007 H   0  0  0  0  0  0  0  0  0  0  0  0
  112.4183   95.6631  114.7603 C   0  0  0  0  0  0  0  0  0  0  0  0
  112.1826   96.5197  115.3285 H   0  0  0  0  0  0  0  0  0  0  0  0
  113.0101   94.9931  115.3582 H   0  0  0  0  0  0  0  0  0  0  0  0
   99.5854   83.4827  116.8243 C   0  0  0  0  0  0  0  0  0  0  0  0
   98.7679   83.8535  117.4630 H   0  0  0  0  0  0  0  0  0  0  0  0
   99.6897   82.3772  116.9816 H   0  0  0  0  0  0  0  0  0  0  0  0
   99.2496   83.8376  115.3645 C   0  0  0  0  0  0  0  0  0  0  0  0
   98.9591   84.9190  115.4170 H   0  0  0  0  0  0  0  0  0  0  0  0
  100.0859   83.6573  114.7406 H   0  0  0  0  0  0  0  0  0  0  0  0
   98.0135   83.1322  114.8162 C   0  0  0  0  0  0  0  0  0  0  0  0
   97.8184   83.4639  113.8045 H   0  0  0  0  0  0  0  0  0  0  0  0
   97.1232   83.2626  115.4173 H   0  0  0  0  0  0  0  0  0  0  0  0
  103.3982   88.4968  107.5138 C   0  0  0  0  0  0  0  0  0  0  0  0
  103.0573   89.2139  108.3433 H   0  0  0  0  0  0  0  0  0  0  0  0
  103.1234   89.0983  106.6205 H   0  0  0  0  0  0  0  0  0  0  0  0
   98.1779   81.6152  114.6843 C   0  0  0  0  0  0  0  0  0  0  0  0
   99.1331   81.3756  114.2137 H   0  0  0  0  0  0  0  0  0  0  0  0
   98.1823   81.1466  115.6799 H   0  0  0  0  0  0  0  0  0  0  0  0
  113.3099   96.0180  113.5260 C   0  0  0  0  0  0  0  0  0  0  0  0
  113.6828   95.0600  113.1514 H   0  0  0  0  0  0  0  0  0  0  0  0
  112.6690   96.5608  112.8157 H   0  0  0  0  0  0  0  0  0  0  0  0
  106.7308   89.5104  125.0579 C   0  0  0  0  0  0  0  0  0  0  0  0
  107.0160   88.4523  125.0571 H   0  0  0  0  0  0  0  0  0  0  0  0
  107.5489   89.9529  124.5752 H   0  0  0  0  0  0  0  0  0  0  0  0
  114.5500   96.9487  113.7562 C   0  0  0  0  0  0  0  0  0  0  0  0
  115.2259   96.6055  114.6368 H   0  0  0  0  0  0  0  0  0  0  0  0
  114.1784   97.9382  114.0425 H   0  0  0  0  0  0  0  0  0  0  0  0
   97.1236   80.9899  113.8493 C   0  0  0  0  0  0  0  0  0  0  0  0
   96.8888   81.6139  112.9574 H   0  0  0  0  0  0  0  0  0  0  0  0
   96.2019   80.8713  114.4581 H   0  0  0  0  0  0  0  0  0  0  0  0
  102.6496   87.1471  107.4393 C   0  0  0  0  0  0  0  0  0  0  0  0
  101.5860   87.3530  107.3071 H   0  0  0  0  0  0  0  0  0  0  0  0
  102.7222   86.6584  108.3699 H   0  0  0  0  0  0  0  0  0  0  0  0
  106.6872   89.6975  126.6178 C   0  0  0  0  0  0  0  0  0  0  0  0
  106.4396   90.6879  126.7559 H   0  0  0  0  0  0  0  0  0  0  0  0
  106.0017   88.9559  127.0304 H   0  0  0  0  0  0  0  0  0  0  0  0
  103.1293   86.3069  106.3056 C   0  0  0  0  0  0  0  0  0  0  0  0
  102.5219   85.3086  106.3592 H   0  0  0  0  0  0  0  0  0  0  0  0
  102.9926   86.7319  105.3539 H   0  0  0  0  0  0  0  0  0  0  0  0
  104.2227   85.9018  106.4027 H   0  0  0  0  0  0  0  0  0  0  0  0
   97.4656   79.6342  113.2228 C   0  0  0  0  0  0  0  0  0  0  0  0
   98.3265   79.7266  112.5964 H   0  0  0  0  0  0  0  0  0  0  0  0
   97.7709   78.9984  114.0826 H   0  0  0  0  0  0  0  0  0  0  0  0
   96.6565   79.1348  112.7539 H   0  0  0  0  0  0  0  0  0  0  0  0
  115.3101   97.1182  112.4333 C   0  0  0  0  0  0  0  0  0  0  0  0
  116.1236   97.8414  112.5370 H   0  0  0  0  0  0  0  0  0  0  0  0
  115.7623   96.1503  112.1666 H   0  0  0  0  0  0  0  0  0  0  0  0
  114.6145   97.5193  111.6607 H   0  0  0  0  0  0  0  0  0  0  0  0
  107.9892   89.6215  127.2671 C   0  0  0  0  0  0  0  0  0  0  0  0
  108.4609   90.6422  127.2573 H   0  0  0  0  0  0  0  0  0  0  0  0
  107.9808   89.3636  128.3214 H   0  0  0  0  0  0  0  0  0  0  0  0
  108.7105   88.9716  126.7923 H   0  0  0  0  0  0  0  0  0  0  0  0
  1  2  4  0  0  0  0
  2  3  4  0  0  0  0
  3  4  4  0  0  0  0
  4  5  2  0  0  0  0
  1  6  4  0  0  0  0
  5  6  4  0  0  0  0
  1  7  1  0  0  0  0
  4  8  1  0  0  0  0
  2  9  1  0  0  0  0
  9 10  1  0  0  0  0
  3 11  1  0  0  0  0
 10 11  4  0  0  0  0
 10 12  4  0  0  0  0
 12 13  4  0  0  0  0
 11 14  1  0  0  0  0
 13 14  1  0  0  0  0
  5 15  1  0  0  0  0
 15 16  1  0  0  0  0
  6 17  1  0  0  0  0
 16 17  4  0  0  0  0
 16 18  4  0  0  0  0
 18 19  4  0  0  0  0
 17 20  1  0  0  0  0
 19 20  1  0  0  0  0
 13 21  4  0  0  0  0
 12 22  1  0  0  0  0
 18 23  1  0  0  0  0
 19 24  4  0  0  0  0
 21 25  4  0  0  0  0
 22 25  1  0  0  0  0
 23 26  1  0  0  0  0
 24 26  4  0  0  0  0
 21 27  1  0  0  0  0
 24 28  1  0  0  0  0
 26 29  4  0  0  0  0
 29 30  2  0  0  0  0
 30 31  1  0  0  0  0
 30 32  1  0  0  0  0
 31 33  1  0  0  0  0
 31 34  2  0  0  0  0
 32 35  1  0  0  0  0
 33 35  4  0  0  0  0
 32 36  2  0  0  0  0
 33 37  4  0  0  0  0
 35 38  4  0  0  0  0
 36 39  1  0  0  0  0
 36 40  1  0  0  0  0
 37 41  4  0  0  0  0
 37 42  1  0  0  0  0
 38 43  4  0  0  0  0
 41 43  4  0  0  0  0
 38 44  1  0  0  0  0
 39 45  3  0  0  0  0
 40 46  3  0  0  0  0
 41 47  1  0  0  0  0
 43 48  1  0  0  0  0
 29 49  1  0  0  0  0
 25 50  4  0  0  0  0
 50 51  2  0  0  0  0
 51 52  1  0  0  0  0
 51 53  1  0  0  0  0
 52 54  1  0  0  0  0
 52 55  2  0  0  0  0
 53 56  1  0  0  0  0
 54 56  4  0  0  0  0
 53 57  4  0  0  0  0
 54 58  4  0  0  0  0
 56 59  4  0  0  0  0
 57 60  1  0  0  0  0
 57 61  1  0  0  0  0
 58 62  4  0  0  0  0
 58 63  1  0  0  0  0
 59 64  4  0  0  0  0
 62 64  4  0  0  0  0
 59 65  1  0  0  0  0
 60 66  3  0  0  0  0
 61 67  3  0  0  0  0
 62 68  1  0  0  0  0
 64 69  1  0  0  0  0
 50 70  1  0  0  0  0
 15 71  1  0  0  0  0
 71 72  4  0  0  0  0
 71 73  4  0  0  0  0
 72 74  4  0  0  0  0
 72 75  1  0  0  0  0
 73 76  4  0  0  0  0
 73 77  1  0  0  0  0
 74 78  4  0  0  0  0
 76 78  4  0  0  0  0
 74 79  1  0  0  0  0
 76 80  1  0  0  0  0
  9 81  1  0  0  0  0
 81 82  4  0  0  0  0
 81 83  4  0  0  0  0
 82 84  4  0  0  0  0
 82 85  1  0  0  0  0
 83 86  4  0  0  0  0
 83 87  1  0  0  0  0
 84 88  4  0  0  0  0
 86 88  4  0  0  0  0
 84 89  1  0  0  0  0
 86 90  1  0  0  0  0
  9 91  1  0  0  0  0
 91 92  4  0  0  0  0
 91 93  4  0  0  0  0
 92 94  4  0  0  0  0
 92 95  1  0  0  0  0
 93 96  4  0  0  0  0
 93 97  1  0  0  0  0
 94 98  4  0  0  0  0
 96 98  4  0  0  0  0
 94 99  1  0  0  0  0
 96100  1  0  0  0  0
 15101  1  0  0  0  0
101102  4  0  0  0  0
101103  4  0  0  0  0
102104  2  0  0  0  0
102105  1  0  0  0  0
103106  4  0  0  0  0
103107  1  0  0  0  0
104108  4  0  0  0  0
106108  4  0  0  0  0
104109  1  0  0  0  0
106110  1  0  0  0  0
 98111  1  0  0  0  0
111112  1  0  0  0  0
111113  1  0  0  0  0
111114  1  0  0  0  0
114115  1  0  0  0  0
114116  1  0  0  0  0
114117  1  0  0  0  0
117118  1  0  0  0  0
117119  1  0  0  0  0
 78120  1  0  0  0  0
120121  1  0  0  0  0
120122  1  0  0  0  0
120123  1  0  0  0  0
123124  1  0  0  0  0
123125  1  0  0  0  0
123126  1  0  0  0  0
126127  1  0  0  0  0
126128  1  0  0  0  0
108129  1  0  0  0  0
129130  1  0  0  0  0
129131  1  0  0  0  0
129132  1  0  0  0  0
132133  1  0  0  0  0
132134  1  0  0  0  0
132135  1  0  0  0  0
135136  1  0  0  0  0
135137  1  0  0  0  0
 88138  1  0  0  0  0
138139  1  0  0  0  0
138140  1  0  0  0  0
138141  1  0  0  0  0
141142  1  0  0  0  0
141143  1  0  0  0  0
141144  1  0  0  0  0
144145  1  0  0  0  0
144146  1  0  0  0  0
126147  1  0  0  0  0
147148  1  0  0  0  0
147149  1  0  0  0  0
144150  1  0  0  0  0
150151  1  0  0  0  0
150152  1  0  0  0  0
135153  1  0  0  0  0
153154  1  0  0  0  0
153155  1  0  0  0  0
117156  1  0  0  0  0
156157  1  0  0  0  0
156158  1  0  0  0  0
153159  1  0  0  0  0
159160  1  0  0  0  0
159161  1  0  0  0  0
150162  1  0  0  0  0
162163  1  0  0  0  0
162164  1  0  0  0  0
147165  1  0  0  0  0
165166  1  0  0  0  0
165167  1  0  0  0  0
156168  1  0  0  0  0
168169  1  0  0  0  0
168170  1  0  0  0  0
165171  1  0  0  0  0
171172  1  0  0  0  0
171173  1  0  0  0  0
171174  1  0  0  0  0
162175  1  0  0  0  0
175176  1  0  0  0  0
175177  1  0  0  0  0
175178  1  0  0  0  0
159179  1  0  0  0  0
179180  1  0  0  0  0
179181  1  0  0  0  0
179182  1  0  0  0  0
168183  1  0  0  0  0
183184  1  0  0  0  0
183185  1  0  0  0  0
183186  1  0  0  0  0
187188  4  0  0  0  0
188189  4  0  0  0  0
189190  4  0  0  0  0
190191  4  0  0  0  0
187192  4  0  0  0  0
191192  4  0  0  0  0
187193  1  0  0  0  0
190194  1  0  0  0  0
188195  1  0  0  0  0
195196  1  0  0  0  0
189197  1  0  0  0  0
196197  4  0  0  0  0
196198  4  0  0  0  0
198199  4  0  0  0  0
197200  1  0  0  0  0
199200  1  0  0  0  0
191201  1  0  0  0  0
201202  1  0  0  0  0
192203  1  0  0  0  0
202203  4  0  0  0  0
202204  4  0  0  0  0
204205  4  0  0  0  0
203206  1  0  0  0  0
205206  1  0  0  0  0
199207  4  0  0  0  0
198208  1  0  0  0  0
204209  1  0  0  0  0
205210  4  0  0  0  0
207211  4  0  0  0  0
208211  1  0  0  0  0
209212  1  0  0  0  0
210212  4  0  0  0  0
207213  1  0  0  0  0
210214  1  0  0  0  0
212215  4  0  0  0  0
215216  2  0  0  0  0
216217  1  0  0  0  0
216218  1  0  0  0  0
217219  1  0  0  0  0
217220  2  0  0  0  0
218221  1  0  0  0  0
219221  4  0  0  0  0
218222  4  0  0  0  0
219223  4  0  0  0  0
221224  4  0  0  0  0
222225  1  0  0  0  0
222226  1  0  0  0  0
223227  4  0  0  0  0
223228  1  0  0  0  0
224229  4  0  0  0  0
227229  4  0  0  0  0
224230  1  0  0  0  0
225231  3  0  0  0  0
226232  3  0  0  0  0
227233  1  0  0  0  0
229234  1  0  0  0  0
215235  1  0  0  0  0
211236  4  0  0  0  0
236237  2  0  0  0  0
237238  1  0  0  0  0
237239  1  0  0  0  0
238240  1  0  0  0  0
238241  2  0  0  0  0
239242  1  0  0  0  0
240242  4  0  0  0  0
239243  2  0  0  0  0
240244  4  0  0  0  0
242245  4  0  0  0  0
243246  1  0  0  0  0
243247  1  0  0  0  0
244248  4  0  0  0  0
244249  1  0  0  0  0
245250  4  0  0  0  0
248250  4  0  0  0  0
245251  1  0  0  0  0
246252  3  0  0  0  0
247253  3  0  0  0  0
248254  1  0  0  0  0
250255  1  0  0  0  0
236256  1  0  0  0  0
201257  1  0  0  0  0
257258  4  0  0  0  0
257259  4  0  0  0  0
258260  4  0  0  0  0
258261  1  0  0  0  0
259262  4  0  0  0  0
259263  1  0  0  0  0
260264  4  0  0  0  0
262264  4  0  0  0  0
260265  1  0  0  0  0
262266  1  0  0  0  0
195267  1  0  0  0  0
267268  4  0  0  0  0
267269  4  0  0  0  0
268270  4  0  0  0  0
268271  1  0  0  0  0
269272  4  0  0  0  0
269273  1  0  0  0  0
270274  4  0  0  0  0
272274  4  0  0  0  0
270275  1  0  0  0  0
272276  1  0  0  0  0
195277  1  0  0  0  0
277278  4  0  0  0  0
277279  4  0  0  0  0
278280  4  0  0  0  0
278281  1  0  0  0  0
279282  2  0  0  0  0
279283  1  0  0  0  0
280284  4  0  0  0  0
282284  4  0  0  0  0
280285  1  0  0  0  0
282286  1  0  0  0  0
201287  1  0  0  0  0
287288  4  0  0  0  0
287289  4  0  0  0  0
288290  4  0  0  0  0
288291  1  0  0  0  0
289292  4  0  0  0  0
289293  1  0  0  0  0
290294  4  0  0  0  0
292294  4  0  0  0  0
290295  1  0  0  0  0
292296  1  0  0  0  0
284297  1  0  0  0  0
297298  1  0  0  0  0
297299  1  0  0  0  0
297300  1  0  0  0  0
300301  1  0  0  0  0
300302  1  0  0  0  0
300303  1  0  0  0  0
303304  1  0  0  0  0
303305  1  0  0  0  0
264306  1  0  0  0  0
306307  1  0  0  0  0
306308  1  0  0  0  0
306309  1  0  0  0  0
309310  1  0  0  0  0
309311  1  0  0  0  0
309312  1  0  0  0  0
312313  1  0  0  0  0
312314  1  0  0  0  0
294315  1  0  0  0  0
315316  1  0  0  0  0
315317  1  0  0  0  0
315318  1  0  0  0  0
318319  1  0  0  0  0
318320  1  0  0  0  0
318321  1  0  0  0  0
321322  1  0  0  0  0
321323  1  0  0  0  0
274324  1  0  0  0  0
324325  1  0  0  0  0
324326  1  0  0  0  0
324327  1  0  0  0  0
327328  1  0  0  0  0
327329  1  0  0  0  0
327330  1  0  0  0  0
330331  1  0  0  0  0
330332  1  0  0  0  0
312333  1  0  0  0  0
333334  1  0  0  0  0
333335  1  0  0  0  0
330336  1  0  0  0  0
336337  1  0  0  0  0
336338  1  0  0  0  0
321339  1  0  0  0  0
339340  1  0  0  0  0
339341  1  0  0  0  0
303342  1  0  0  0  0
342343  1  0  0  0  0
342344  1  0  0  0  0
339345  1  0  0  0  0
345346  1  0  0  0  0
345347  1  0  0  0  0
336348  1  0  0  0  0
348349  1  0  0  0  0
348350  1  0  0  0  0
333351  1  0  0  0  0
351352  1  0  0  0  0
351353  1  0  0  0  0
342354  1  0  0  0  0
354355  1  0  0  0  0
354356  1  0  0  0  0
351357  1  0  0  0  0
357358  1  0  0  0  0
357359  1  0  0  0  0
357360  1  0  0  0  0
348361  1  0  0  0  0
361362  1  0  0  0  0
361363  1  0  0  0  0
361364  1  0  0  0  0
345365  1  0  0  0  0
365366  1  0  0  0  0
365367  1  0  0  0  0
365368  1  0  0  0  0
354369  1  0  0  0  0
369370  1  0  0  0  0
369371  1  0  0  0  0
369372  1  0  0  0  0
M  END
